test/test_files/validation_tests/case9241pegase_resqlim.m
function mpc = case9241pegase_resqlim
%CASE9241PEGASE_RESQLIM

%% MATPOWER Case Format : Version 2
mpc.version = '2';

%%-----  Power Flow Data  -----%%
%% system MVA base
mpc.baseMVA = 100;

%% bus data
%    bus_i    type    Pd    Qd    Gs    Bs    area    Vm    Va    baseKV    zone    Vmax    Vmin
mpc.bus = [
    1    1    378.4    98.5    0    16.61    0    1.00759685    -36.6799192    220    6    1.1    0.9;
    2    2    0    0    0    0    0    1.031734    -8.50588561    154    1    1.1    0.9;
    3    1    151    48.8    0    4.69    0    1.01783869    -21.2074556    220    5    1.1    0.9;
    4    1    171.41    23.4    0    2.1    0    1.02001833    -6.8790342    220    5    1.1    0.9;
    5    1    45.95    14    0    13.34    0    0.9899377    -48.6274736    220    6    1.1    0.9;
    6    2    0    0    0    0    0    1.038476    -41.4948181    380    6    1.1    0.9;
    7    1    31.03    10.3    0    0.65    0    0.969062653    -33.4417801    110    21    1.1    0.9;
    8    2    0    0    0    0    0    1.023005    -17.2590885    154    1    1.1    0.9;
    9    1    14.3    2    0    1.91    0    1.03265176    -0.128325068    154    1    1.1    0.9;
    10    1    134    24.7    0    12.44    0    1.0321453    -23.9130994    220    5    1.1    0.9;
    11    1    0    0    0    0    0    0.964275149    -28.289659    150    9    1.1    0.9;
    12    1    -6.11    2    0    0.47    0    1.03451041    -23.2563019    150    9    1.1    0.9;
    13    1    -22.74    -8.32    0    6.5    0    1.01386573    -47.4258683    220    6    1.1    0.9;
    14    1    13.5    14.8    0    132.435168    0    1.13234826    -18.3199006    380    9    1.3    0.7;
    15    1    59.67    26.7    0    12.84    0    1.02159953    -49.2146631    220    4    1.1    0.9;
    16    1    30.6    4.3    0    5.15    0    1.03231395    9.59291822    154    1    1.1    0.9;
    17    1    67.68    12.1    0    2.18    0    1.01013757    7.57403926    220    3    1.1    0.9;
    18    1    0    0    0    0    0    1.02435086    19.0066604    380    3    1.1    0.9;
    19    1    25.33    7.5    0    2.39    0    1.00511093    -35.6945042    110    12    1.1    0.9;
    20    1    1.4    0.2    0    4.93    0    1.02451618    10.2086874    154    1    1.1    0.9;
    21    1    161.2    39.3    0    30.71    0    1.03025507    -21.5091112    220    5    1.1    0.9;
    22    1    0    -0    0    0.85    0    1.03026705    -18.1330612    220    5    1.1    0.9;
    23    1    19.62    7.1    0    1.15    0    1.02525165    -23.5367356    110    19    1.1    0.9;
    24    1    17.22    5.7    0    1.22    0    0.96036888    -29.7584142    110    21    1.1    0.9;
    25    2    0    0    0    0    0    1.028526    13.8227086    220    3    1.1    0.9;
    26    1    167.3    54.8    0    110.54    0    1.02958568    -3.20625494    380    5    1.1    0.9;
    27    1    -0    -0    0    14.82    0    1.08547931    14.9994035    380    13    1.1    0.9;
    28    1    0    0    0    0    0    0.994197236    -28.7858494    150    9    1.1    0.9;
    29    1    152.9    49.4    0    27.65    0    1.00381701    -13.8110987    380    5    1.1    0.9;
    30    1    -0    0    0    0.56    0    1.01954005    -26.5888459    150    9    1.1    0.9;
    31    1    69.68    43.2    0    6.3    0    0.875672378    -32.9362188    150    9    1.3    0.7;
    32    1    0    0    0    0    0    0.999402343    -43.1783028    220    4    1.1    0.9;
    33    2    0    0    0    0    0    1.026534    -38.8593767    220    4    1.1    0.9;
    34    1    13.52    4.9    0    1.8    0    1.02844699    -22.1582351    110    19    1.1    0.9;
    35    1    10.51    3.5    0    0.31    0    1.02647505    -33.9888464    110    12    1.1    0.9;
    36    1    -0    -0    0.12    15.34    0    1.04523071    -18.896177    220    19    1.1    0.9;
    37    1    9.21    2.6    0    2    0    0.972197292    -27.329104    110    18    1.1    0.9;
    38    1    42.75    12.8    0    13.3    0    1.02281723    27.4878778    220    8    1.1    0.9;
    39    2    0    0    0    0    0    1.003511    -38.4984872    150    10    1.1    0.9;
    40    1    16.02    4.54    0    0.1    0    0.996354209    -28.9719656    110    23    1.1    0.9;
    41    1    27.9    4    0    4.23    0    1.00801029    -5.31486944    154    1    1.1    0.9;
    42    1    20.82    7.9    0    26.89    0    1.04220952    -49.4047768    380    4    1.1    0.9;
    43    1    12.6    1.8    0    2.03    0    1.02873216    -12.3866424    154    1    1.1    0.9;
    44    1    -0    0    0    7.27    0    1.03959727    -21.7849012    220    5    1.1    0.9;
    45    1    10.11    3.7    0    0.81    0    1.04685974    -22.7876985    110    19    1.1    0.9;
    46    1    10.01    2.7    0    1.14    0    0.958459554    -27.1451789    110    18    1.1    0.9;
    47    1    6.31    0    0    0.67    0    0.985856421    -25.6455625    110    18    1.1    0.9;
    48    1    2.9    0.9    0    0.6    0    1.0432861    -23.7825006    110    15    1.1    0.9;
    49    2    0    0    0    0    0    1.020323    -35.3806889    220    6    1.1    0.9;
    50    1    48.8    6.9    0    8.71    0    1.02156505    -0.936239407    154    1    1.1    0.9;
    51    2    0    0    0    0    0    1.006665    -48.3737199    220    4    1.1    0.9;
    52    1    127.6    31.8    0    20.51    0    1.01757208    0.857710083    150    8    1.1    0.9;
    53    1    48.65    16.1    0    7.14    0    1.05342478    -9.07405238    220    5    1.1    0.9;
    54    1    110.5    -26.8    0    16.37    0    1.02376415    -34.7653491    220    6    1.1    0.9;
    55    1    0    -0    0    1.23    0    0.996867092    10.5610204    220    3    1.1    0.9;
    56    1    140    79.7    0    6.5    0    1.01036447    -16.0423304    220    3    1.1    0.9;
    57    1    21.6    3    0    3.54    0    1.00575502    -6.19392973    154    1    1.1    0.9;
    58    1    0    0    0    2.31    0    1.02749128    -18.5080871    380    5    1.1    0.9;
    59    1    119.2    20.7    0    3.31    0    1.01552427    -24.0029019    220    5    1.1    0.9;
    60    1    0.24    -1.66    0    0.65    0    1.02409391    -17.7240726    110    18    1.1    0.9;
    61    1    -0    0    0    58.57    0    1.08743306    47.1238211    380    3    1.1    0.9;
    62    1    -0    0    0    1.34    0    0.970171201    -25.5297519    110    18    1.1    0.9;
    63    1    187.9    110.2    0    21.25    0    1.01674281    6.36324023    380    3    1.1    0.9;
    64    1    14.92    5.5    0    1.31    0    1.05792854    -21.1484874    110    15    1.1    0.9;
    65    1    -18.52    6.1    0    0.79    0    0.890549117    -31.3323068    150    9    1.1    0.9;
    66    1    4.61    1.7    0    2.32    0    1.07591364    -16.789454    110    19    1.1    0.9;
    67    1    0    0    0.099501    82.133595    0    1.07681599    -20.4601716    380    18    1.1    0.9;
    68    1    10.81    5.1    0    1.09    0    0.930637844    -30.3207124    110    18    1.1    0.9;
    69    1    62.87    20.5    0    1.15    0    1.01673296    -0.355995501    150    8    1.1    0.9;
    70    1    0    0    0    2.64    0    1.02181272    -3.75381757    154    1    1.1    0.9;
    71    1    126.3    42.4    0    55.24    0    1.04534817    3.95992767    150    8    1.1    0.9;
    72    1    6.91    -4.6    0    5.75    0    1.00655113    -41.440143    220    4    1.1    0.9;
    73    1    15.72    5.2    0    0.11    0    1.01130037    -36.1413729    110    12    1.1    0.9;
    74    1    0    0    0    0    0    1.03300353    -26.2882158    150    9    1.1    0.9;
    75    1    38.74    6.1    0    1.17    0    1.01893626    -53.4847731    220    4    1.1    0.9;
    76    1    22.13    10.7    0    14.21    0    1.02286172    27.497721    220    8    1.1    0.9;
    77    1    -0    -0    0    0.73    0    1.0076839    -50.742292    220    4    1.1    0.9;
    78    1    0    -0    0    0.83    0    0.981821028    -18.6583998    110    18    1.1    0.9;
    79    1    138.8    136.7    0    8.76    0    1.01244214    14.7116466    380    3    1.1    0.9;
    80    2    0    0    0    0    0    1.068393    -24.0879477    220    23    1.1    0.9;
    81    1    67.76    19.18    0    1.47    0    1.01092555    62.1528786    150    1    1.1    0.9;
    82    1    22.02    5.1    0    0.69    0    1.03157325    -31.5244262    110    1    1.1    0.9;
    83    1    0    0    0    6.62    0    0.979085167    14.4847192    220    3    1.1    0.9;
    84    1    1    0.3    0    0.19    0    1.01810214    -23.773905    110    19    1.1    0.9;
    85    1    20.9    3    0    5.74    0    1.02207104    19.9420727    154    1    1.1    0.9;
    86    1    0    0    0    0.12    0    1.05107674    -21.5061482    150    9    1.1    0.9;
    87    1    21.52    5.1    0    0.5    0    1.01788934    -12.8042471    110    18    1.1    0.9;
    88    1    71.98    28.8    0    11    0    1.00674716    -36.3087235    220    6    1.1    0.9;
    89    1    0    0    0.199111    4.530599    0    0.991017643    -2.30189405    380    2    1.1    0.9;
    90    1    363.25    115.39    0    3.95    0    1.04077371    -27.6327975    220    5    1.1    0.9;
    91    1    -0    0    0    0.02    0    1.02673792    1.81384275    150    8    1.1    0.9;
    92    1    192.9    73.3    0    20.75    0    1.01894315    4.64942442    380    3    1.1    0.9;
    93    1    17.52    6.3    0    0.26    0    1.05862164    -18.8140107    110    19    1.1    0.9;
    94    1    33.14    12    0    0.65    0    1.00796291    -21.6588014    110    19    1.1    0.9;
    95    1    40.45    25    0    9.82    0    0.979513067    -27.1765726    150    9    1.1    0.9;
    96    1    193.17    53.37    0    4.58    0    1.03631114    -15.040123    220    5    1.1    0.9;
    97    1    0    0    0    9.38    0    1.05288952    3.3437897    380    1    1.1    0.9;
    98    1    90.7    25.5    0    3.11    0    1.04547435    -1.88263594    220    3    1.1    0.9;
    99    1    176.3    -58.9    0    24.77    0    1.02505099    -32.5046052    380    6    1.1    0.9;
    100    1    35.94    22.3    0    0    0    1.01901542    -26.9897758    150    9    1.1    0.9;
    101    1    -0    0    0    0.29    0    0.964011097    -28.301223    150    9    1.1    0.9;
    102    1    0    -0    0    3.77    0    1.00400816    -49.8384151    220    6    1.1    0.9;
    103    1    65.07    40.3    0    5.43    0    0.990811847    -31.1313542    150    9    1.1    0.9;
    104    1    51.36    -8.8    0    2.15    0    0.965338272    -54.7141506    220    6    1.1    0.9;
    105    1    -0    -0    0    82.55    0    1.03669825    -33.7963525    380    6    1.1    0.9;
    106    1    0    -0    0    31.19    0    1.14835664    -19.4104529    380    23    1.3    0.7;
    107    2    0    0    0    0    0    1.083135    42.7709417    380    3    1.3    0.7;
    108    1    3.8    1.3    0    0.4    0    1.00519175    -15.7186339    110    18    1.1    0.9;
    109    1    137    19.5    0    4.9    0    1.00485722    -8.38548135    154    1    1.1    0.9;
    110    1    0    0    0    0    0    0.985274072    -29.0161396    150    9    1.1    0.9;
    111    1    61.07    36    0    3.09    0    1.04855826    -23.1998677    220    11    1.1    0.9;
    112    1    0    0    0    3.24    0    1.02633673    -9.00411584    220    3    1.1    0.9;
    113    1    -0    -0    0    6.532711    0    1.02723195    -13.9490997    380    5    1.1    0.9;
    114    1    55.7    7.9    0    4.21    0    1.02650784    13.3089878    154    1    1.1    0.9;
    115    1    0    -0    0    4.21    0    1.06133236    -19.3312708    220    5    1.1    0.9;
    116    1    1.8    0.7    0    0.3    0    1.03874271    -20.2089002    110    19    1.1    0.9;
    117    1    40.04    16    0    0.52    0    1.00245406    -22.137665    110    18    1.1    0.9;
    118    1    -0    0    0    36.562834    0    1.02389813    -11.1336225    380    5    1.1    0.9;
    119    1    0    0    0    0.09    0    1.06612509    -18.1085787    150    9    1.1    0.9;
    120    1    140.6    20.1    0    13.81    0    1.01768814    -20.9908815    154    1    1.1    0.9;
    121    1    45.15    14.1    0    0.19    0    1.06117089    -22.9372205    110    15    1.1    0.9;
    122    1    -0    0    0    5.75    0    1.00209959    9.46659803    220    3    1.1    0.9;
    123    1    0    0    0    0    0    1.04120842    -20.2184223    220    11    1.1    0.9;
    124    2    0    0    0    0    0    1.077112    8.59765284    220    5    1.1    0.9;
    125    1    3.42    2.68    0    1.46    0    1.02201706    -17.760047    110    18    1.1    0.9;
    126    1    0    -0    0    2.64    0    1.00983293    7.17088466    154    1    1.1    0.9;
    127    1    -0    -0    0    4.3    0    1.02175582    -27.7297607    220    6    1.1    0.9;
    128    1    23.73    12.7    0    0.52    0    1.01471189    -15.5218194    220    5    1.1    0.9;
    129    1    121.9    7.4    0    1.34    0    1.01855298    -11.4940886    220    3    1.1    0.9;
    130    1    -0    0    0.135375    47.750675    0    1.0579515    -47.5767411    380    10    1.1    0.9;
    131    1    47.35    16.4    0    4.08    0    1.03255919    -37.2882321    110    22    1.1    0.9;
    132    1    0    -0    0    21.39    0    1.06238728    -44.2125478    380    1    1.1    0.9;
    133    1    38.14    12.5    0    6.28    0    1.02131701    2.44480599    150    8    1.1    0.9;
    134    1    54.2    7.8    0    94.9    0    1.01128902    9.72403354    400    1    1.1    0.9;
    135    1    130.6    84.9    0    4.22    0    1.02192885    -21.1948087    220    7    1.1    0.9;
    136    1    7.91    2.6    0    0.74    0    1.00648662    -33.6512642    110    12    1.1    0.9;
    137    1    42.1    74.61    0    37.58    0    1.00306403    62.4337752    150    1    1.1    0.9;
    138    1    -75.38    7.8    0    29.9    0    1.06746615    -42.2058546    380    10    1.1    0.9;
    139    1    -0    -0    0    36.92    0    1.01103072    18.0780527    380    8    1.1    0.9;
    140    1    0    0    0    4.14    0    1.02519884    18.6594565    220    8    1.1    0.9;
    141    2    0    0    0    0    0    1.050716    -0.449561465    220    13    1.1    0.9;
    142    2    0    0    0    0    0    1.042299    -30.2248422    220    6    1.1    0.9;
    143    1    0    0    0    0    0    1.02180658    5.1825914    150    8    1.1    0.9;
    144    1    0    0    0    98.53    0    1.06288652    20.0906686    380    14    1.1    0.9;
    145    1    38.34    5.6    0    7.64    0    1.03823622    -8.8729701    220    5    1.1    0.9;
    146    1    269.6    65.7    0    0    0    1.08562692    -23.4993033    120    20    1.3    0.7;
    147    2    0    0    0    0    0    1.058041    -12.5200379    220    7    1.1    0.9;
    148    1    32.34    12    0    6.1    0    1.03462479    -7.89833566    220    5    1.1    0.9;
    149    1    100.1    45.1    0    1.11    0    1.02162936    -40.2400032    380    6    1.1    0.9;
    150    2    0    0    0    0    0    1.062129    2.6532986    220    5    1.1    0.9;
    151    2    0    0    0    0    0    1.013748    -20.5638047    154    1    1.1    0.9;
    152    1    7    1    0    4.69    0    1.05032559    -2.29873216    154    1    1.1    0.9;
    153    1    -0    0    0    0.56    0    1.01137752    -29.3877352    150    7    1.1    0.9;
    154    1    0    0    0    1.29    0    1.01673609    -37.1795805    110    12    1.1    0.9;
    155    1    -0    -0    0    1.7    0    1.01983107    -26.8173723    110    21    1.1    0.9;
    156    1    40.34    25    0    1.14    0    0.952324313    -28.7406305    150    9    1.1    0.9;
    157    1    9.21    3.3    0    1.2    0    1.01465786    -10.9136249    110    19    1.1    0.9;
    158    1    166    60.3    0    0.57    0    1.01480782    7.90128837    220    3    1.1    0.9;
    159    1    0    -0    0    0.1    0    1.01234689    -26.7319198    150    9    1.1    0.9;
    160    1    79.4    11.3    0    4.92    0    1.03092657    4.33698057    154    1    1.1    0.9;
    161    1    -0    -0    0    0.16    0    1.07349861    -24.9005539    150    9    1.1    0.9;
    162    1    0    0    0    66.65    0    1.05231134    -14.923722    380    6    1.1    0.9;
    163    1    147.76    32.73    0    8.34    0    1.04065035    -10.2224545    220    5    1.1    0.9;
    164    1    0    -0    0    5.17    0    1.02055419    -0.00617853162    150    8    1.1    0.9;
    165    1    26.8    -3.7    0    51.261678    0    1.07184896    -20.9818844    380    9    1.1    0.9;
    166    2    0    0    0    0    0    1.040747    13.3797372    220    3    1.1    0.9;
    167    1    257.5    131.1    0    1.08    0    1.03944058    -3.53634957    220    3    1.1    0.9;
    168    1    16.7    2.4    0    6.09    0    1.03317659    15.5746263    154    1    1.1    0.9;
    169    1    0    0    0    1.91    0    1.030163    -26.4600984    150    9    1.1    0.9;
    170    1    -0    -0    0    2.35    0    1.01144821    36.6811144    220    1    1.1    0.9;
    171    1    100.8    13.2    0    5.24    0    1.06191938    -25.138173    220    5    1.1    0.9;
    172    1    111.7    10.96    0    4.22    0    1.00966826    -47.5102721    220    4    1.1    0.9;
    173    1    90.38    -5.05    0    8.49    0    1.0546344    16.1499719    220    13    1.1    0.9;
    174    1    370.5    -17    0    9.91    0    1.07054952    -27.6592729    220    5    1.1    0.9;
    175    1    9.91    3.2    0    0.67    0    1.00379433    -38.4111027    110    12    1.1    0.9;
    176    1    -0.69    -5.46    0    5.07    0    1.03221003    -25.5700843    150    9    1.1    0.9;
    177    1    94.9    36.2    0    16.46    0    0.969764243    -43.5653532    220    10    1.1    0.9;
    178    1    81.09    48    0    0.03    0    1.00917851    -27.2983966    150    9    1.1    0.9;
    179    1    0    0    0    0    0    1.04143712    -50.2153111    380    4    1.1    0.9;
    180    1    0    0    0    0.54    0    1.02952027    -25.5533451    110    21    1.1    0.9;
    181    1    54.96    16.9    0    3.37    0    1.04058766    -36.5063305    110    22    1.1    0.9;
    182    1    19.32    26    0    0.69    0    1.03500044    40.2354562    220    3    1.1    0.9;
    183    1    0    0    0    1.83    0    1.02727362    -26.1077494    150    9    1.1    0.9;
    184    1    -0    -0    0    2.42    0    1.03674682    -11.3205038    220    5    1.1    0.9;
    185    1    20.9    3    0    4.11    0    1.00794176    -3.7153118    154    1    1.1    0.9;
    186    1    19.92    6.6    0    0.56    0    1.00885423    -27.861405    110    21    1.1    0.9;
    187    1    57.16    2    0    1.48    0    1.00247399    -35.7576968    110    22    1.1    0.9;
    188    1    36.84    13.9    0    3.3    0    1.01429741    -19.288394    220    5    1.1    0.9;
    189    1    -15.04    -5.12    0    0.43    0    1.0012277    -25.5742208    110    18    1.1    0.9;
    190    2    0    0    0    0    0    1.025544    -18.9571469    110    19    1.1    0.9;
    191    1    0    -0    0    14.19    0    1.01621186    -35.8011033    220    6    1.1    0.9;
    192    2    0    0    0    0    0    1.048355    66.7566817    380    3    1.1    0.9;
    193    1    119.9    3.7    0    3.33    0    1.02969927    25.4969546    220    3    1.1    0.9;
    194    2    0    0    0    0    0    1.02931    13.6263532    150    8    1.1    0.9;
    195    1    73.14    21.55    0    8.52    0    1.04891154    -8.51469682    220    5    1.1    0.9;
    196    1    0    -0    0    12.48    0    1.06728315    -25.9412971    220    5    1.1    0.9;
    197    1    0    0    0    0    0    1.09661152    46.1122532    380    3    1.1    0.9;
    198    1    39.74    11.8    0    1.44    0    1.01066511    -15.7891324    220    5    1.1    0.9;
    199    1    86.8    28.4    0    1.34    0    1.01753004    1.07738259    150    8    1.1    0.9;
    200    1    22.42    2.1    0    0.19    0    1.01097736    62.3118914    150    1    1.1    0.9;
...
];

%% generator data
%    bus    Pg    Qg    Qmax    Qmin    Vg    mBase    status    Pmax    Pmin    Pc1    Pc2    Qc1min    Qc1max    Qc2min    Qc2max    ramp_agc    ramp_10    ramp_30    ramp_q    apf
mpc.gen = [
    2    -81.4    6.7210442    42.19    -20.45    1.031734    100    1    100    -108.53    0    0    0    0    0    0    0    0    0    0    0;
    6    701    221.864992    524.53    -211.57    1.038476    100    1    1200    400    0    0    0    0    0    0    0    0    0    0    0;
    8    499.7    2.74489419    251.73    -246.25    1.023005    100    1    524.68    0    0    0    0    0    0    0    0    0    0    0    0;
    18    467.5    212.97    212.97    -93.48    1.026728    100    1    500    166.67    0    0    0    0    0    0    0    0    0    0    0;
    25    319.6    166.533867    179.43    -66.21    1.028526    100    1    400    0    0    0    0    0    0    0    0    0    0    0    0;
    32    8    5.91    5.91    -4.56    1.003223    100    1    16.2    0    0    0    0    0    0    0    0    0    0    0    0;
    33    5.3    -0.332017762    2.27    -1.08    1.026534    100    1    5.38    0    0    0    0    0    0    0    0    0    0    0    0;
    39    34.3    5.12567474    17.76    -7.14    1.003511    100    1    40    0    0    0    0    0    0    0    0    0    0    0    0;
    49    309.2    85.1886246    218.52    -75.97    1.020323    100    1    480    0    0    0    0    0    0    0    0    0    0    0    0;
    51    -144.5    4.01270961    5.48    -4.19    1.006665    100    1    100    -192.67    0    0    0    0    0    0    0    0    0    0    0;
    80    43.2    30.7718522    139.94    -43.78    1.068393    100    1    100    28.8    0    0    0    0    0    0    0    0    0    0    0;
    107    570    86.9807387    253.85    -113.79    1.083135    100    1    600    200    0    0    0    0    0    0    0    0    0    0    0;
    123    24.9    18.84    18.84    -6.06    1.041503    100    1    40    0    0    0    0    0    0    0    0    0    0    0    0;
    124    861.3    74.5835868    440.32    -172.59    1.077112    100    1    1000    333.33    0    0    0    0    0    0    0    0    0    0    0;
    141    -73.2    10.5070732    18.59    -6.33    1.050716    100    1    100    -97.6    0    0    0    0    0    0    0    0    0    0    0;
    142    158.7    3.49657614    78.15    -32.4    1.042299    100    1    180    0    0    0    0    0    0    0    0    0    0    0    0;
    147    -16    15.8107853    70.12    -29.5    1.058041    100    1    100    -21.33    0    0    0    0    0    0    0    0    0    0    0;
    150    67.29    0.746227986    77.09    -22.54    1.062129    100    1    160    0    0    0    0    0    0    0    0    0    0    0    0;
    151    -110.35    -6.62406046    37.97    -58.18    1.013748    100    1    100    -147.13    0    0    0    0    0    0    0    0    0    0    0;
    166    292.2    111.003128    127.67    -56.53    1.040747    100    1    300    0    0    0    0    0    0    0    0    0    0    0    0;
    179    -179.2    52.64    52.64    -51.72    1.043661    100    1    100    -238.93    0    0    0    0    0    0    0    0    0    0    0;
    190    90.69    31.4146889    54.24    -20.63    1.025544    100    1    120    0    0    0    0    0    0    0    0    0    0    0    0;
    192    135.8    16.5824608    91.61    -30.98    1.048355    100    1    200    0    0    0    0    0    0    0    0    0    0    0    0;
    194    268.6    42.8862663    130.19    -53.53    1.02931    100    1    300    100    0    0    0    0    0    0    0    0    0    0    0;
    197    292.2    123.89    123.89    -59.54    1.099985    100    1    300    0    0    0    0    0    0    0    0    0    0    0    0;
    201    5.2    2.27    2.27    -1.07    1.01914    100    1    5.37    0    0    0    0    0    0    0    0    0    0    0    0;
    209    25.4    10.0551393    18.7    -6.17    1.026832    100    1    40    0    0    0    0    0    0    0    0    0    0    0    0;
    214    -175.2    160.414453    192    -52.89    1.079765    100    1    100    -233.6    0    0    0    0    0    0    0    0    0    0    0;
    219    1171    617.365034    937.43    -288.16    1.056623    100    1    2000    666.67    0    0    0    0    0    0    0    0    0    0    0;
    220    668.7    -114.968049    402.92    -146.95    1.047116    100    1    900    300    0    0    0    0    0    0    0    0    0    0    0;
    221    296    33.0457334    183.92    -65.3    1.030636    100    1    400    133.33    0    0    0    0    0    0    0    0    0    0    0;
    222    -147.3    7.24756313    12.51    -5.62    1.030494    100    1    100    -196.4    0    0    0    0    0    0    0    0    0    0    0;
    239    -7.05    24.2034688    38.52    -11.24    1.018711    100    1    100    -9.4    0    0    0    0    0    0    0    0    0    0    0;
    246    307.1    -5.04235887    378.08    -112.59    1.06685    100    1    800    266.67    0    0    0    0    0    0    0    0    0    0    0;
    248    -172    37.47    37.47    -12.35    1.043991    100    1    100    -229.33    0    0    0    0    0    0    0    0    0    0    0;
    255    423.2    -30.8573239    220.66    -85.89    1.059597    100    1    500    166.67    0    0    0    0    0    0    0    0    0    0    0;
    262    -115.4    38.1    38.1    -11.72    1.033795    100    1    100    -153.87    0    0    0    0    0    0    0    0    0    0    0;
    263    -34.4    0.127458192    5.05    -6.95    1.028681    100    1    100    -45.87    0    0    0    0    0    0    0    0    0    0    0;
    278    -64.1    9.39953717    37.7    -12.09    1.014153    100    1    100    -85.47    0    0    0    0    0    0    0    0    0    0    0;
    282    1245.7    -185.381501    924.64    -300.35    1.077605    100    1    2000    666.67    0    0    0    0    0    0    0    0    0    0    0;
    289    52.7    -3.67657215    26.02    -10.81    1.046783    100    1    60    0    0    0    0    0    0    0    0    0    0    0    0;
    294    250    25.7490537    45.1    -21.32    1.003375    100    1    480    160    0    0    0    0    0    0    0    0    0    0    0;
    299    975.9    101.568149    721.25    -258.71    1.039248    100    1    1600    533.33    0    0    0    0    0    0    0    0    0    0    0;
    309    95.1    42.62    42.62    -18.72    0.989085    100    1    100    0    0    0    0    0    0    0    0    0    0    0    0;
    310    346.18    672.434799    99999    -99999    1.155322    100    1    700    200    0    0    0    0    0    0    0    0    0    0    0;
    313    9.6    -1.62064347    4.83    -7.17    1.025259    100    1    10.08    0    0    0    0    0    0    0    0    0    0    0    0;
    320    1760    -179.285321    320.04    -843.96    1.013336    100    1    1812    604    0    0    0    0    0    0    0    0    0    0    0;
    324    94    74.3948266    95.32    -27.29    1.063285    100    1    200    0    0    0    0    0    0    0    0    0    0    0    0;
    325    -21.4    1.93    1.93    -1.01    1.009625    100    1    100    -28.53    0    0    0    0    0    0    0    0    0    0    0;
    328    -77.9    15.0497477    188.91    -56.14    1.017618    100    1    100    -103.87    0    0    0    0    0    0    0    0    0    0    0;
    338    83.7    3.4436528    55.54    -19.16    1.046957    100    1    120    0    0    0    0    0    0    0    0    0    0    0    0;
    347    50.8    -11.4254878    33.33    -42.67    1.020949    100    1    53.42    0    0    0    0    0    0    0    0    0    0    0    0;
    348    160.4    3.38795261    110.57    -36.9    1.057894    100    1    240    0    0    0    0    0    0    0    0    0    0    0    0;
    352    1250.4    273.882215    926.35    -297.68    1.048835    100    1    2000    666.67    0    0    0    0    0    0    0    0    0    0    0;
    361    238.3    53.1408154    186.39    -58.5    1.05949    100    1    400    133.33    0    0    0    0    0    0    0    0    0    0    0;
    366    185.6    61.97    61.97    -120.27    1.008853    100    1    196    65.33    0    0    0    0    0    0    0    0    0    0    0;
    372    -54.9    77.7888835    282.95    -84.3    1.074991    100    1    100    -73.2    0    0    0    0    0    0    0    0    0    0    0;
    382    25.68    23.3336434    38.4    -11.44    1.060853    100    1    80    0    0    0    0    0    0    0    0    0    0    0    0;
    389    69    17.9159031    56.73    -17.84    1.017731    100    1    120    0    0    0    0    0    0    0    0    0    0    0    0;
    394    2404.4    22.2345393    1224.26    -490.17    1.063147    100    1    2800    933.33    0    0    0    0    0    0    0    0    0    0    0;
    406    31    11.7167528    22.22    -17.35    1.012399    100    1    61.23    0    0    0    0    0    0    0    0    0    0    0    0;
    409    -62    -4.59152041    24.32    -29.67    1.032831    100    1    100    -82.67    0    0    0    0    0    0    0    0    0    0    0;
    411    35.9    5.84736289    17.66    -7.27    1.03248    100    1    40    0    0    0    0    0    0    0    0    0    0    0    0;
    413    231    28.5584322    124.12    -49.84    1.048421    100    1    280    0    0    0    0    0    0    0    0    0    0    0    0;
    423    -19.2    1.91111822    5.22    -2.6    1.030299    100    1    100    -25.6    0    0    0    0    0    0    0    0    0    0    0;
    424    636.3    231.043474    304.38    -125.48    1.051241    100    1    700    233.33    0    0    0    0    0    0    0    0    0    0    0;
    433    436    217.18    217.18    -89.22    1.024885    100    1    500    166.67    0    0    0    0    0    0    0    0    0    0    0;
    434    -2.8    2.75    2.75    -3.25    1.037999    100    1    100    -3.73    0    0    0    0    0    0    0    0    0    0    0;
    438    74    13.7880475    45.1    -16.18    1.038705    100    1    100    0    0    0    0    0    0    0    0    0    0    0    0;
    439    308.6    -38.5444333    175.16    -69.21    1.072491    100    1    400    0    0    0    0    0    0    0    0    0    0    0    0;
    440    83.1    1.72296548    55.73    -19.01    1.028093    100    1    120    0    0    0    0    0    0    0    0    0    0    0    0;
    442    -40.35    1.95    1.95    -0.93    1.011727    100    1    100    -53.8    0    0    0    0    0    0    0    0    0    0    0;
    447    37.7    3.56218923    16.84    -8.04    1.035215    100    1    40    0    0    0    0    0    0    0    0    0    0    0    0;
    452    -56.8    17.5923451    37.86    -11.94    1.013382    100    1    100    -75.73    0    0    0    0    0    0    0    0    0    0    0;
    453    260.1    80.7912657    257.23    -74.4    1.024712    100    1    540    0    0    0    0    0    0    0    0    0    0    0    0;
    456    -28.08    -11.2548944    44.8    -39.81    0.999847    100    1    100    -37.44    0    0    0    0    0    0    0    0    0    0    0;
    484    229.5    0.909211178    132.41    -50.85    1.054091    100    1    300    0    0    0    0    0    0    0    0    0    0    0    0;
    489    -107.4    4.69218523    6.28    -4.82    1.008032    100    1    100    -143.2    0    0    0    0    0    0    0    0    0    0    0;
    491    105.4    94.56    94.56    -28.1    1.033193    100    1    200    0    0    0    0    0    0    0    0    0    0    0    0;
    505    110.6    -13.3449851    37.34    -58.33    1.022173    100    1    116.03    0    0    0    0    0    0    0    0    0    0    0    0;
    511    101.4    94.38    94.38    -28.04    1.081589    100    1    200    0    0    0    0    0    0    0    0    0    0    0    0;
    515    324.82    -27.24    72.5    -27.24    1.045162    100    1    700    200    0    0    0    0    0    0    0    0    0    0    0;
    516    539.4    187.755433    261.79    -106.67    1.07129    100    1    600    200    0    0    0    0    0    0    0    0    0    0    0;
    518    -410.3    61.0102463    85.63    -37.21    1.067615    100    1    100    -547.07    0    0    0    0    0    0    0    0    0    0    0;
    524    69    -12.9837033    30.15    -43.07    1.046979    100    1    72.45    0    0    0    0    0    0    0    0    0    0    0    0;
    541    118.2    -13.3533035    7.81    -27.19    1.03819    100    1    124.19    0    0    0    0    0    0    0    0    0    0    0    0;
    564    -51.67    7.08780584    18.47    -19.35    1.06702    100    1    100    -68.89    0    0    0    0    0    0    0    0    0    0    0;
    578    -110.3    12.9797278    25.88    -11.01    1.042146    100    1    100    -147.07    0    0    0    0    0    0    0    0    0    0    0;
    583    -270    7.28569583    17.88    -7.03    1.048595    100    1    100    -360    0    0    0    0    0    0    0    0    0    0    0;
    587    246    2.05478775    185.56    -59.39    1.040079    100    1    400    133.33    0    0    0    0    0    0    0    0    0    0    0;
    590    100.7    175.934424    380.31    -110.08    1.065004    100    1    300    67.13    0    0    0    0    0    0    0    0    0    0    0;
    615    38.2    3.36546549    17.09    -7.79    1.068592    100    1    40    0    0    0    0    0    0    0    0    0    0    0    0;
    616    379.2    62.1667522    217.9    -81.16    1.04484    100    1    480    160    0    0    0    0    0    0    0    0    0    0    0;
    618    670.3    6.65528734    351.18    -139.11    1.022784    100    1    800    266.67    0    0    0    0    0    0    0    0    0    0    0;
    628    152.4    49.9502192    78.79    -31.69    0.982057    100    1    180    0    0    0    0    0    0    0    0    0    0    0    0;
    636    101.89    5.22421763    52.99    -21.87    1.04241    100    1    120    0    0    0    0    0    0    0    0    0    0    0    0;
    637    21.3    0.919426008    11.2    -8.44    1.031148    100    1    22.32    0    0    0    0    0    0    0    0    0    0    0    0;
    639    -46.2    126.468871    135.52    -38.9    1.033532    100    1    100    -61.6    0    0    0    0    0    0    0    0    0    0    0;
    642    63.33    36.3759955    90.13    -93.03    1.031368    100    1    276.09    0    0    0    0    0    0    0    0    0    0    0    0;
    648    47.2    20.1479325    37.95    -11.87    1.02749    100    1    80    0    0    0    0    0    0    0    0    0    0    0    0;
    672    67    -0.712241574    71.32    -62.92    1.02121    100    1    205.81    0    0    0    0    0    0    0    0    0    0    0    0;
    682    37.4    8.62414851    38.77    -11.06    1.060787    100    1    80    0    0    0    0    0    0    0    0    0    0    0    0;
    686    -21.65    -4.21847838    34.75    -34.26    1.013903    100    1    100    -28.86    0    0    0    0    0    0    0    0    0    0    0;
    692    274.8    -4.69262853    182.17    -62.79    1.059006    100    1    400    133.33    0    0    0    0    0    0    0    0    0    0    0;
    697    634.8    29.9211118    357.4    -132.75    1.031719    100    1    800    266.67    0    0    0    0    0    0    0    0    0    0    0;
    698    274.8    14.3732563    129.94    -53.91    0.999662    100    1    300    100    0    0    0    0    0    0    0    0    0    0    0;
    709    16    22.23    22.23    -20.83    1.068875    100    1    65.3    0    0    0    0    0    0    0    0    0    0    0    0;
    711    27.8    84.2996431    377.01    -113.63    1.070147    100    1    100    18.53    0    0    0    0    0    0    0    0    0    0    0;
    713    99.3    8.52571249    53.98    -20.79    1.034791    100    1    120    0    0    0    0    0    0    0    0    0    0    0    0;
    714    453.4    80.5587259    376.36    -114.08    1.065017    100    1    800    266.67    0    0    0    0    0    0    0    0    0    0    0;
    715    323.1    52.2627291    66.42    -179.95    1.021604    100    1    366    122    0    0    0    0    0    0    0    0    0    0    0;
    727    384.26    -19.4055676    379.61    -111.09    1.070143    100    1    800    266.67    0    0    0    0    0    0    0    0    0    0    0;
    728    70.8    -16.4806811    35.73    -44.31    1.030375    100    1    74.28    0    0    0    0    0    0    0    0    0    0    0    0;
    735    170    -22.9630262    89.94    -122.06    1.026593    100    1    178.5    0    0    0    0    0    0    0    0    0    0    0    0;
    738    90.79    48.6137592    107.86    -95.15    1.033376    100    1    311.39    34.6    0    0    0    0    0    0    0    0    0    0    0;
    739    465.7    107.377806    212.97    -93.45    1.035442    100    1    500    166.67    0    0    0    0    0    0    0    0    0    0    0;
    749    198.88    7.98767771    105.69    -43.84    1.053546    100    1    240    0    0    0    0    0    0    0    0    0    0    0    0;
    751    65.9    12.3024877    136.94    -47.24    1.020488    100    1    300    0    0    0    0    0    0    0    0    0    0    0    0;
    757    116.7    51.3    51.3    -23.41    1.013994    100    1    120    0    0    0    0    0    0    0    0    0    0    0    0;
    763    37.3    6.02362246    27.88    -8.97    1.042899    100    1    60    0    0    0    0    0    0    0    0    0    0    0    0;
    764    138.3    19.2316629    174.17    -71.12    1.048246    100    1    400    133.33    0    0    0    0    0    0    0    0    0    0    0;
    765    170.7    20.1374204    76.76    -33.84    1.017174    100    1    180    0    0    0    0    0    0    0    0    0    0    0    0;
    774    134.4    -5.73241247    81.57    -60.74    1.038992    100    1    141.12    0    0    0    0    0    0    0    0    0    0    0    0;
    776    -111.4    9.46034919    18.16    -6.73    1.023986    100    1    100    -148.53    0    0    0    0    0    0    0    0    0    0    0;
    778    16.5    4.77660451    12.37    -9.36    1.047837    100    1    33.58    0    0    0    0    0    0    0    0    0    0    0    0;
    779    37.8    17.34    17.34    -7.58    1.039304    100    1    45    0    0    0    0    0    0    0    0    0    0    0    0;
    780    50.8    17.2586315    37.43    -12.32    1.001975    100    1    80    0    0    0    0    0    0    0    0    0    0    0    0;
    791    569.74    20.8807461    567.63    -167.48    1.052091    100    1    1200    400    0    0    0    0    0    0    0    0    0    0    0;
    795    58.4    9.11930029    36.75    -13.04    1.041931    100    1    80    0    0    0    0    0    0    0    0    0    0    0    0;
    796    31.6    21.8661201    39    -10.74    1.01604    100    1    80    0    0    0    0    0    0    0    0    0    0    0    0;
    803    -89.2    21.9173967    74.03    -25.54    1.04662    100    1    100    -118.93    0    0    0    0    0    0    0    0    0    0    0;
    807    1597.5    -2.57436429    864.47    -360.97    1.053518    100    1    2000    666.67    0    0    0    0    0    0    0    0    0    0    0;
    813    505.6    77.5987943    309.08    -290.93    1.037003    100    1    602    200.67    0    0    0    0    0    0    0    0    0    0    0;
    823    1274.2    319.63768    926.68    -298.31    1.039055    100    1    2000    666.67    0    0    0    0    0    0    0    0    0    0    0;
    828    55.9    -11.5610019    20.87    -22.43    1.044382    100    1    58.7    0    0    0    0    0    0    0    0    0    0    0    0;
    831    85.2    16.3081613    55.59    -19.18    1.003271    100    1    120    0    0    0    0    0    0    0    0    0    0    0    0;
    832    507    143.243226    264.71    -102.83    1.004583    100    1    600    200    0    0    0    0    0    0    0    0    0    0    0;
    837    44    10.0964014    27.19    -9.66    1.022737    100    1    60    0    0    0    0    0    0    0    0    0    0    0    0;
    844    97.5    37.3145177    54.35    -20.47    1.064419    100    1    120    0    0    0    0    0    0    0    0    0    0    0    0;
    848    4.03    -4.92299044    49.63    -38.12    1.011431    100    1    100    2.69    0    0    0    0    0    0    0    0    0    0    0;
    849    8.7    6.45    6.45    -4.91    1.037264    100    1    17.57    0    0    0    0    0    0    0    0    0    0    0    0;
    851    59.56    42.7429614    96.64    -27.81    1.018845    100    1    200    0    0    0    0    0    0    0    0    0    0    0    0;
    858    855.6    186.867199    440.67    -172.15    1.028813    100    1    1000    333.33    0    0    0    0    0    0    0    0    0    0    0;
    861    55.8    11.0595476    57.98    -16.68    1.050818    100    1    120    0    0    0    0    0    0    0    0    0    0    0    0;
    875    343.5    49.0183558    228.16    -78.19    1.038959    100    1    500    166.67    0    0    0    0    0    0    0    0    0    0    0;
    888    181.98    8.42303737    138.6    -45.27    1.037604    100    1    300    100    0    0    0    0    0    0    0    0    0    0    0;
    891    1702.8    737.041526    1097.41    -373.91    1.062964    100    1    2400    800    0    0    0    0    0    0    0    0    0    0    0;
    894    264.67    70.2061914    141.93    -57.74    1.054199    100    1    320    0    0    0    0    0    0    0    0    0    0    0    0;
    896    -2.7    -2.23739702    8.6    -11.4    1.021987    100    1    100    -3.6    0    0    0    0    0    0    0    0    0    0    0;
    913    1249.4    712.417233    772.11    -269.94    1.026545    100    1    1700    566.67    0    0    0    0    0    0    0    0    0    0    0;
    916    230.2    -18.9464785    134.45    -49.76    1.022135    100    1    300    0    0    0    0    0    0    0    0    0    0    0    0;
    917    32    4.71055332    18.22    -6.73    1.061631    100    1    40    0    0    0    0    0    0    0    0    0    0    0    0;
    926    420    133.305733    201.12    -87.96    1.008066    100    1    472    157.33    0    0    0    0    0    0    0    0    0    0    0;
    927    27.4    -0.889838308    28.69    -8.16    1.067901    100    1    60    0    0    0    0    0    0    0    0    0    0    0    0;
    930    679.6    -65.3897829    406.66    -144.75    1.058189    100    1    900    300    0    0    0    0    0    0    0    0    0    0    0;
    972    1221.2    418.168471    934.73    -291.52    1.078612    100    1    2000    666.67    0    0    0    0    0    0    0    0    0    0    0;
    974    83.89    19.3339144    54.36    -20.21    1.033045    100    1    120    0    0    0    0    0    0    0    0    0    0    0    0;
    976    21.3    36.02    36.02    -35.35    1.024328    100    1    107.83    0    0    0    0    0    0    0    0    0    0    0    0;
    978    14.9    0.554729514    6.43    -2.99    1.017319    100    1    15.15    0    0    0    0    0    0    0    0    0    0    0    0;
    983    1034.8    -60.3865643    948.36    -277.27    1.078039    100    1    2000    666.67    0    0    0    0    0    0    0    0    0    0    0;
    984    1029.2    12.1679268    738.93    -240.84    1.031963    100    1    1600    533.33    0    0    0    0    0    0    0    0    0    0    0;
    991    21.68    4.68990792    16.83    -8.05    1.001634    100    1    40    0    0    0    0    0    0    0    0    0    0    0    0;
    992    14.96    19.8737563    25.97    -10.87    1.030255    100    1    60    0    0    0    0    0    0    0    0    0    0    0    0;
    993    -136.9    17.85    17.85    -7.07    1.037248    100    1    100    -182.53    0    0    0    0    0    0    0    0    0    0    0;
    1001    92.1    55.02    55.02    -19.81    1.069874    100    1    120    0    0    0    0    0    0    0    0    0    0    0    0;
    1002    171    17.1000871    89.55    -35.15    1.03837    100    1    200    0    0    0    0    0    0    0    0    0    0    0    0;
    1004    86.4    35.7519842    43.99    -17.4    0.99944    100    1    100    0    0    0    0    0    0    0    0    0    0    0    0;
    1021    -179.3    33.7572967    58.34    -16.23    1.012345    100    1    100    -239.07    0    0    0    0    0    0    0    0    0    0    0;
    1029    138.6    11.6516046    90.64    -31.73    1.037886    100    1    200    0    0    0    0    0    0    0    0    0    0    0    0;
    1030    164.94    24.8612342    71.66    -27.89    1.007808    100    1    400    100    0    0    0    0    0    0    0    0    0    0    0;
    1036    202.5    2.31711    137.39    -46.45    1.037074    100    1    300    100    0    0    0    0    0    0    0    0    0    0    0;
    1043    829.5    49.5899172    387.88    -163.4    1.027465    100    1    900    300    0    0    0    0    0    0    0    0    0    0    0;
    1050    337.91    14.2503698    173.5    -71.79    1.055375    100    1    518.72    252.05    0    0    0    0    0    0    0    0    0    0    0;
    1082    364.4    60.8681928    171.62    -73.5    1.027941    100    1    400    133.33    0    0    0    0    0    0    0    0    0    0    0;
    1083    91.8    9.44871326    54.91    -19.88    1.050507    100    1    120    0    0    0    0    0    0    0    0    0    0    0    0;
    1088    4.6    7.90899424    8.06    -3.66    1.025882    100    1    45.99    0    0    0    0    0    0    0    0    0    0    0    0;
    1093    837    107.036451    550.69    -185.15    1.024587    100    1    1200    400    0    0    0    0    0    0    0    0    0    0    0;
    1097    17.5    4.31498697    6.17    -6.64    1.013606    100    1    18.38    0    0    0    0    0    0    0    0    0    0    0    0;
    1098    93.35    -17.2536412    91.42    -31.24    1.104358    100    1    200    66.67    0    0    0    0    0    0    0    0    0    0    0;
    1100    58.2    6.48309896    36.8    -13.01    1.042301    100    1    80    0    0    0    0    0    0    0    0    0    0    0    0;
    1102    -124.15    21.8891607    38.05    -11.59    1.048163    100    1    100    -165.54    0    0    0    0    0    0    0    0    0    0    0;
    1103    405.69    46.6974714    376.66    -112.66    1.043526    100    1    800    266.67    0    0    0    0    0    0    0    0    0    0    0;
    1117    744.1    -238.710667    307.47    -487.11    1.009173    100    1    864    288    0    0    0    0    0    0    0    0    0    0    0;
    1119    298.7    -1.71248928    126.49    -57.33    1.044725    100    1    300    100    0    0    0    0    0    0    0    0    0    0    0;
    1121    289.79    3.87080818    158.2    -62.81    1.017488    100    1    360    0    0    0    0    0    0    0    0    0    0    0    0;
    1122    75.2    11.8404767    68    -56.08    1.043868    100    1    190.28    0    0    0    0    0    0    0    0    0    0    0    0;
    1125    129.6    21.4086003    114.57    -34.74    1.04319    100    1    240    0    0    0    0    0    0    0    0    0    0    0    0;
    1131    667.5    109.190814    407.66    -143.61    1.036981    100    1    900    300    0    0    0    0    0    0    0    0    0    0    0;
    1138    930.3    115.053469    432.44    -180.7    1.088765    100    1    1000    333.33    0    0    0    0    0    0    0    0    0    0    0;
    1139    175.48    49.6757359    107.89    -41.5    1.054186    100    1    240    0    0    0    0    0    0    0    0    0    0    0    0;
    1145    173.47    -33.0100715    153.07    -144.24    1.040382    100    1    452.53    37.71    0    0    0    0    0    0    0    0    0    0    0;
    1173    -124.7    1.85    1.85    -0.88    1.018544    100    1    100    -166.27    0    0    0    0    0    0    0    0    0    0    0;
    1174    26.8    6.31192721    18.61    -6.28    1.002801    100    1    40    0    0    0    0    0    0    0    0    0    0    0    0;
    1175    309.54    22.4548712    108.35    -39.12    1.038334    100    1    700    200    0    0    0    0    0    0    0    0    0    0    0;
    1176    6.7    14.1847089    94.13    -28.09    1.016193    100    1    100    4.46    0    0    0    0    0    0    0    0    0    0    0;
    1184    329.2    178.02    178.02    -67.55    1.037371    100    1    400    0    0    0    0    0    0    0    0    0    0    0    0;
    1220    107.4    60.0355594    84.07    -26.48    1.008655    100    1    180    0    0    0    0    0    0    0    0    0    0    0    0;
    1225    282.8    16.6847517    118.84    -55.64    1.051668    100    1    290.43    0    0    0    0    0    0    0    0    0    0    0    0;
    1237    1504.8    360.772774    906.61    -319.44    1.103909    100    1    2000    666.67    0    0    0    0    0    0    0    0    0    0    0;
    1241    46.13    22.29    22.29    -20.98    1.019582    100    1    65.63    0    0    0    0    0    0    0    0    0    0    0    0;
...
];

%% branch data
%    fbus    tbus    r    x    b    rateA    rateB    rateC    ratio    angle    status    angmin    angmax    Pf    Qf    Pt    Qt
mpc.branch = [
    5147    3097    0.0006    0.00616    0    823    0    0    0    0    1    -360    360    -62.5086    90.6940    62.5780    -89.9820;
    5147    8763    0.0005    0.0074    0    921    0    0    0    0    1    -360    360    62.5086    -71.9983    -62.4653    72.6391;
    2169    3124    0.00107    0.00626    0    476    0    0    0    0    1    -360    360    -187.3466    11.1821    187.6979    -9.1265;
    2169    3234    0.000841    0.0055    0    476    0    0    0    0    1    -360    360    187.3466    -9.7554    -187.0706    11.5599;
    3517    711    0.00143    0.01563    0    1645    0    0    0    0    1    -360    360    866.0594    3.1827    -856.7727    98.3218;
    3517    4533    0.00146    0.01692    0    1711    0    0    0    0    1    -360    360    -866.0594    46.1465    875.5678    64.0460;
    427    5425    7e-05    0.00057    0    1711    0    0    0    0    1    -360    360    277.5428    63.9415    -277.4937    -63.5414;
    427    4704    6e-05    0.00056    0    1514    0    0    0    0    1    -360    360    -277.5428    -62.5088    277.5848    62.9010;
    5960    7431    0.003349    0.01656    0    0    0    0    0    0    1    -360    360    4.2084    3.1487    -4.2075    -3.1442;
    5960    3186    0.003409    0.016211    0    0    0    0    0    0    1    -360    360    -4.2084    -0.2738    4.2090    0.2766;
    4481    7431    0.003479    0.01586    0    0    0    0    0    0    1    -360    360    4.1037    3.1982    -4.1027    -3.1940;
    4481    3186    0.003099    0.017969    0    0    0    0    0    0    1    -360    360    -4.1037    -0.4061    4.1042    0.4090;
    531    9203    0.00127    0.01842    0    823    0    0    0    0    1    -360    360    -565.8384    123.2009    569.9032    -64.2455;
    531    835    0.00126    0.01847    0    1547    0    0    0    0    1    -360    360    565.8384    -73.5366    -561.9232    130.9297;
    1656    118    0.0013    0.01808    0    1218    0    0    0    0    1    -360    360    -660.2836    107.7072    665.7924    -31.0931;
    1656    3449    0.00131    0.01765    0    1744    0    0    0    0    1    -360    360    660.2836    -56.2268    -654.8372    129.6085;
    5084    1809    0.00065    0.01311    0    2793    0    0    0    0    1    -360    360    456.7467    444.2046    -454.2207    -393.2580;
    5084    6398    0.00067    0.00974    0    2598    0    0    0    0    1    -360    360    -456.7467    72.2492    458.1183    -52.3104;
    5205    7833    0.00236    0.01418    0    553    0    0    0    0    1    -360    360    163.4813    -4.3392    -162.8727    7.9963;
    5205    7770    0.002169    0.015909    0    514    0    0    0    0    1    -360    360    -163.4813    7.2844    164.0414    -3.1762;
    354    1278    0.00027    0.00254    0    1349    0    0    0    0    1    -360    360    -27.6854    123.0712    27.7246    -122.7027;
    354    7617    0.00027    0.00259    0    1119    0    0    0    0    1    -360    360    27.6854    -113.5614    -27.6518    113.8840;
    2611    1278    0.00033    0.00302    0    1448    0    0    0    0    1    -360    360    343.2448    -92.0903    -342.8615    95.5980;
    2611    905    0.00029    0.00312    0    1613    0    0    0    0    1    -360    360    -343.2448    102.4095    343.5870    -98.7280;
    1842    6542    0.000289    0.00137    0    533    0    0    0    0    1    -360    360    12.4128    40.5424    -12.4080    -40.5197;
    1842    7622    0.000219    0.00263    0    0    0    0    0    0    1    -360    360    -12.4128    -13.2188    12.4135    13.2268;
    2134    6542    0.000289    0.001341    0    457    0    0    0    0    1    -360    360    36.1690    23.1802    -36.1640    -23.1573;
    2134    8785    0.000229    0.00257    0    0    0    0    0    0    1    -360    360    -36.1690    4.6760    36.1718    -4.6445;
    6613    6542    0.000841    0.00689    0    514    0    0    0    0    1    -360    360    60.0191    -11.3758    -59.9900    11.6135;
    6613    1651    0.000979    0.00586    0    495    0    0    0    0    1    -360    360    -60.0191    12.5007    60.0531    -12.2971;
    5773    6542    0.00014    0.0012    0    0    0    0    0    0    1    -360    360    -8.4875    47.0167    8.4905    -46.9914;
    5773    7840    0.000211    0.001539    0    0    0    0    0    0    1    -360    360    8.4875    -46.6267    -8.4831    46.6586;
    5214    6542    0.000401    0.004901    0    0    0    0    0    0    1    -360    360    -4.2692    20.1747    4.2708    -20.1555;
    5214    7840    0.000219    0.00151    0    533    0    0    0    0    1    -360    360    4.2692    -19.2206    -4.2684    19.2260;
    8072    6542    0.000729    0.004539    0    495    0    0    0    0    1    -360    360    -90.4481    -12.9761    90.5044    13.3271;
    8072    2759    0.00062    0.00482    0    495    0    0    0    0    1    -360    360    90.4481    13.7967    -90.4000    -13.4230;
    2971    6069    0.00052    0.00407    0    1481    0    0    0    0    1    -360    360    -95.0984    126.5641    95.2324    -125.5155;
    2971    3445    0.00034    0.00502    0    1843    0    0    0    0    1    -360    360    95.0984    -115.3279    -95.0203    116.4810;
    7561    6069    0.00065    0.00698    0    1711    0    0    0    0    1    -360    360    338.2657    126.6296    -337.4048    -117.3847;
    7561    8825    0.00059    0.00806    0    1678    0    0    0    0    1    -360    360    -338.2657    -106.3982    339.0189    116.6877;
    6748    8864    0.00063    0.00464    0    495    0    0    0    0    1    -360    360    -54.7149    -5.1494    54.7330    5.2823;
    6748    5078    0.000599    0.005099    0    533    0    0    0    0    1    -360    360    54.7149    6.4995    -54.6977    -6.3527;
    4956    4785    0.00064    0.00307    0    0    0    0    0    0    1    -360    360    -140.8720    -35.7177    140.9923    36.2947;
    4956    7667    0.000659    0.003    0    0    0    0    0    0    1    -360    360    140.8720    36.8301    -140.7477    -36.2641;
    8619    6775    0.00053    0.00528    0    1086    0    0    0    0    1    -360    360    -80.1769    -65.3611    80.2307    65.8969;
    8619    8195    0.00056    0.0053    0    1283    0    0    0    0    1    -360    360    80.1769    79.3866    -80.1093    -78.7468;
    3107    4785    0.0018    0.007919    0    0    0    0    0    0    1    -360    360    -117.3356    -49.3746    117.5970    50.5249;
    3107    7154    0.001651    0.00862    0    0    0    0    0    0    1    -360    360    117.3356    52.3308    -117.0913    -51.0553;
    5437    6775    0.00045    0.00545    0    1382    0    0    0    0    1    -360    360    300.0469    79.3024    -299.6431    -74.4121;
    5437    905    0.00052    0.00476    0    1547    0    0    0    0    1    -360    360    -300.0469    -66.8617    300.5046    71.0522;
    2282    6876    0.01286    0.037421    0    0    0    0    0    0    1    -360    360    -1.2983    3.3964    1.2999    -3.3917;
    2282    5654    0.032397    0.123    0    0    0    0    0    0    1    -360    360    1.2983    -2.6142    -1.2956    2.6242;
    474    6876    0.032851    0.069727    0    0    0    0    0    0    1    -360    360    -7.0590    6.0825    7.0863    -6.0246;
    474    8045    0.059942    0.112802    0    0    0    0    0    0    1    -360    360    7.0590    -5.0693    -7.0157    5.1509;
    7917    7472    0.00011    0.00109    0    1086    0    0    0    0    1    -360    360    -105.1901    -187.5814    105.2365    188.0407;
    7917    8899    0.00011    0.00107    0    1185    0    0    0    0    1    -360    360    105.1901    190.5884    -105.1426    -190.1263;
    6225    7681    0.000461    0.00395    0    629    0    0    0    0    1    -360    360    269.0939    90.5024    -268.7613    -87.6523;
    6225    1508    0.000599    0.003789    0    591    0    0    0    0    1    -360    360    -269.0939    -89.6088    269.5253    92.3373;
    7118    6568    0.00173    0.01542    0    987    0    0    0    0    1    -360    360    6.0502    77.4865    -5.9636    -76.7145;
    7118    4346    0.00166    0.02083    0    1119    0    0    0    0    1    -360    360    -6.0502    -29.4268    6.0626    29.5826;
    3469    8850    0.006314    0.018488    0    0    0    0    0    0    1    -360    360    14.5701    -4.1896    -14.5567    4.2288;
    3469    1997    0.015727    0.037669    0    0    0    0    0    0    1    -360    360    -14.5701    4.4819    14.6038    -4.4011;
    7556    7058    0.00374    0.02095    0    800    0    0    0    0    1    -360    360    278.2375    -22.8367    -275.5670    37.7958;
    7556    4324    0.00511    0.019461    0    800    0    0    0    0    1    -360    360    -278.2375    26.2204    281.8940    -12.2950;
    1069    2867    0.011281    0.050771    0    457    0    0    0    0    1    -360    360    149.5029    -52.1349    -146.8635    64.0137;
    1069    2588    0.0115    0.049719    0    438    0    0    0    0    1    -360    360    -149.5029    61.4782    152.3074    -49.3530;
    3945    2867    0.011719    0.048659    0    438    0    0    0    0    1    -360    360    154.3202    -56.9910    -151.3601    69.2820;
    3945    2588    0.01193    0.047599    0    438    0    0    0    0    1    -360    360    -154.3202    66.6872    157.4672    -54.1312;
    132    2962    0.00064    0.00715    0    1481    0    0    0    0    1    -360    360    -239.9183    36.9172    240.2524    -33.1845;
    132    4393    0.00089    0.00712    0    1283    0    0    0    0    1    -360    360    239.9183    -12.7750    -239.4631    16.4165;
    5044    693    0.00048    0.00555    0    987    0    0    0    0    1    -360    360    -28.4209    -14.6196    28.4253    14.6704;
    5044    7860    0.00047    0.00566    0    1086    0    0    0    0    1    -360    360    28.4209    28.0259    -28.4142    -27.9451;
    6883    693    0.00046    0.00524    0    1053    0    0    0    0    1    -360    360    -30.9453    -15.9228    30.9503    15.9797;
    6883    7860    0.00052    0.00514    0    1053    0    0    0    0    1    -360    360    30.9453    29.7637    -30.9367    -29.6788;
    1456    4503    0.00438    0.010686    0    0    0    0    0    0    1    -360    360    -41.6419    -3.2762    41.7185    3.4631;
...